/*--------------------------------*- C++ -*----------------------------------*\
| =========                 |                                                 |
| \\      /  F ield         | OpenFOAM: The Open Source CFD Toolbox           |
|  \\    /   O peration     | Version:  v2112                                 |
|   \\  /    A nd           | Website:  www.openfoam.com                      |
|    \\/     M anipulation  |                                                 |
\*---------------------------------------------------------------------------*/
FoamFile
{
    version     2.0;
    format      ascii;
    class       dictionary;
    object      blockMeshDict;
}
// * * * * * * * * * * * * * * * * * * * * * * * * * * * * * * * * * * * * * //
#include "caseParameters"

vertices
(   
    ( $x0  $y0  $z0) // 0' 0 
    ( $x1  $y0  $z0) // 1' 1
    ( $x1  $y0  $z1) // 2' 5
    ( $x0  $y0  $z1) // 3' 4
    ( $x0  $y1  $z0) // 4' 3
    ( $x1  $y1  $z0) // 5' 2
    ( $x1  $y1  $z1) // 6' 6
    ( $x0  $y1  $z1) // 7' 7
);

blocks
(
    hex (0 1 2 3 4 5 6 7) ($nx $ny $nz) simpleGrading (1 1 1)
);

edges
(
);

boundary
(
    /*walls
    {
        type patch;
        faces
        (
            (3 7 6 2)
            (1 5 4 0)
            (0 4 7 3)
            (2 6 5 1)
            (0 3 2 1)
            (4 5 6 7)
        );
    }*/
    right
    {
        type symmetry;
        faces
        (
            (3 7 6 2)
        );
    }
    left
    {
        type symmetry;
        faces
        (
            (1 5 4 0)
        );
    }
    inlet
    {
        type patch;
        faces
        (
            (0 4 7 3)
        );
    }
    outlet
    {
        type patch;
        faces
        (
            (2 6 5 1)
        );
    }
    bottom
    {
        type symmetry;
        faces
        (
            (0 3 2 1)
        );
    }
    top
    {
        type patch;
        faces
        (
            (4 5 6 7)
        );
    }
);


// ************************************************************************* //
