/*--------------------------------*- C++ -*----------------------------------*\
| =========                 |                                                 |
| \\      /  F ield         | OpenFOAM: The Open Source CFD Toolbox           |
|  \\    /   O peration     | Version:  2112                                  |
|   \\  /    A nd           | Website:  www.openfoam.com                      |
|    \\/     M anipulation  |                                                 |
\*---------------------------------------------------------------------------*/
FoamFile
{
    version     2.0;
    format      ascii;
    arch        "LSB;label=32;scalar=64";
    class       extendedFeatureEdgeMesh;
    location    "constant/extendedFeatureEdgeMesh";
    object      disc.extendedFeatureEdgeMesh;
}
// * * * * * * * * * * * * * * * * * * * * * * * * * * * * * * * * * * * * * //

// points

408
(
(0.04641079903 0 -0.9989219904)
(0.01547519956 0 -0.9998800159)
(1.224650029e-16 0 -1)
(-0.01547519956 0 -0.9998800159)
(0.1388330013 0 -0.9903159738)
(0.1081190035 0 -0.9941380024)
(0.07730189711 0 -0.9970080256)
(0.2300579995 0 -0.9731770158)
(0.199830994 0 -0.9798300266)
(0.1694130003 0 -0.9855449796)
(0.3193019927 0 -0.9476529956)
(0.2898220122 0 -0.9570810199)
(0.2600649893 0 -0.9655910134)
(0.4057939947 0 -0.9139649868)
(0.3773150146 0 -0.9260849953)
(0.3484750092 0 -0.937318027)
(0.4887900054 0 -0.8724009991)
(0.4615580142 0 -0.8871099949)
(0.4338839948 0 -0.9009690285)
(0.5675749779 0 -0.8233219981)
(0.5418239832 0 -0.8404920101)
(0.5155540109 0 -0.8568570018)
(0.6414690018 0 -0.7671489716)
(0.6174209714 0 -0.7866330147)
(0.5927820206 0 -0.8053629994)
(0.7098370194 0 -0.7043660283)
(0.6876990199 0 -0.7259950042)
(0.6649029851 0 -0.7469300032)
(0.7720890045 0 -0.6355140209)
(0.7520520091 0 -0.6591029763)
(0.7312949896 0 -0.6820610166)
(0.827688992 0 -0.5611870289)
(0.8099259734 0 -0.58653301)
(0.7913860083 0 -0.6113160253)
(0.876157999 0 -0.4820249975)
(0.8608210087 0 -0.5089079738)
(0.8446589708 0 -0.5353040099)
(0.9170770049 0 -0.3987100124)
(0.9042990208 0 -0.4268989861)
(0.8906549811 0 -0.4546799958)
(0.9500949979 0 -0.3119589984)
(0.9399859905 0 -0.3412120044)
(0.9289770126 0 -0.3701379895)
(0.9749280214 0 -0.2225210071)
(0.9675750136 0 -0.2525849938)
(0.9592949748 0 -0.2824069858)
(0.9913600087 0 -0.1311649978)
(0.9868270159 0 -0.1617819965)
(0.9813470244 0 -0.1922439933)
(0.9992520213 0 -0.03867990151)
(0.9975759983 0 -0.06958489865)
(0.9949449897 0 -0.1004230008)
(0.9985330105 0 0.05413889885)
(0.9997310042 0 0.02321170084)
(0.9999700189 0 -0.00773784006)
(0.9892119765 0 0.146491006)
(0.9932720065 0 0.1158080027)
(0.9963799715 0 0.08501429856)
(0.9713680148 0 0.2375819981)
(0.9782549739 0 0.2074069977)
(0.9842050076 0 0.1770340055)
(0.9451540112 0 0.3266249895)
(0.95480901 0 0.2972190082)
(0.9635499716 0 0.2675279975)
(0.9107969999 0 0.412853986)
(0.9231370091 0 0.384469986)
(0.9345930219 0 0.3557179868)
(0.8685929775 0 0.495525986)
(0.8835120201 0 0.4684079885)
(0.8975849748 0 0.4408420026)
(0.8189049959 0 0.5739290118)
(0.8362740278 0 0.5483109951)
(0.8528419733 0 0.5221689939)
(0.7621620297 0 0.6473860145)
(0.7818319798 0 0.6234899759)
(0.8007519841 0 0.5989959836)
(0.6988520026 0 0.7152659893)
(0.7206519842 0 0.6932960153)
(0.7417629957 0 0.6706629992)
(0.6295210123 0 0.7769839764)
(0.6532639861 0 0.7571300268)
(0.6763820052 0 0.7365509868)
(0.5547659993 0 0.8320069909)
(0.5802479982 0 0.814440012)
(0.605174005 0 0.7960929871)
(0.4752309918 0 0.8798609972)
(0.5022320151 0 0.8647329807)
(0.5287520289 0 0.8487759829)
(0.3916020095 0 0.9201350212)
(0.419889003 0 0.9075750113)
(0.447773993 0 0.8941469789)
(0.3045980036 0 0.9524809718)
(0.333927989 0 0.9425979853)
(0.3629390001 0 0.9318130016)
(0.2149699926 0 0.9766209722)
(0.2450910062 0 0.9695000052)
(0.2749759853 0 0.961450994)
(0.1234909967 0 0.9923459888)
(0.154140994 0 0.9880489707)
(0.1846439987 0 0.9828050137)
(0.0309466999 0 0.9995210171)
(0.06186379865 0 0.998085022)
(0.09272159636 0 0.9956920147)
(-0.06186379865 0 0.998085022)
(-0.0309466999 0 0.9995210171)
(0 0 1)
(-0.154140994 0 0.9880489707)
(-0.1234909967 0 0.9923459888)
(-0.09272159636 0 0.9956920147)
(-0.2450910062 0 0.9695000052)
(-0.2149699926 0 0.9766209722)
(-0.1846439987 0 0.9828050137)
(-0.333927989 0 0.9425979853)
(-0.3045980036 0 0.9524809718)
(-0.2749759853 0 0.961450994)
(-0.419889003 0 0.9075750113)
(-0.3916020095 0 0.9201350212)
(-0.3629390001 0 0.9318130016)
(-0.5022320151 0 0.8647329807)
(-0.4752309918 0 0.8798609972)
(-0.447773993 0 0.8941469789)
(-0.5802479982 0 0.814440012)
(-0.5547659993 0 0.8320069909)
(-0.5287520289 0 0.8487759829)
(-0.6532639861 0 0.7571300268)
(-0.6295210123 0 0.7769839764)
(-0.605174005 0 0.7960929871)
(-0.7206519842 0 0.6932960153)
(-0.6988520026 0 0.7152659893)
(-0.6763820052 0 0.7365509868)
(-0.7818319798 0 0.6234899759)
(-0.7621620297 0 0.6473860145)
(-0.7417629957 0 0.6706629992)
(-0.8362740278 0 0.5483109951)
(-0.8189049959 0 0.5739290118)
(-0.8007519841 0 0.5989959836)
(-0.8835120201 0 0.4684079885)
(-0.8685929775 0 0.495525986)
(-0.8528419733 0 0.5221689939)
(-0.9231370091 0 0.384469986)
(-0.9107969999 0 0.412853986)
(-0.8975849748 0 0.4408420026)
(-0.95480901 0 0.2972190082)
(-0.9451540112 0 0.3266249895)
(-0.9345930219 0 0.3557179868)
(-0.9782549739 0 0.2074069977)
(-0.9713680148 0 0.2375819981)
(-0.9635499716 0 0.2675279975)
(-0.9932720065 0 0.1158080027)
(-0.9892119765 0 0.146491006)
(-0.9842050076 0 0.1770340055)
(-0.9997310042 0 0.02321170084)
(-0.9985330105 0 0.05413889885)
(-0.9963799715 0 0.08501429856)
(-0.9975759983 0 -0.06958489865)
(-0.9992520213 0 -0.03867990151)
(-0.9999700189 0 -0.00773784006)
(-0.9868270159 0 -0.1617819965)
(-0.9913600087 0 -0.1311649978)
(-0.9949449897 0 -0.1004230008)
(-0.9675750136 0 -0.2525849938)
(-0.9749280214 0 -0.2225210071)
(-0.9813470244 0 -0.1922439933)
(-0.9399859905 0 -0.3412120044)
(-0.9500949979 0 -0.3119589984)
(-0.9592949748 0 -0.2824069858)
(-0.9042990208 0 -0.4268989861)
(-0.9170770049 0 -0.3987100124)
(-0.9289770126 0 -0.3701379895)
(-0.8608210087 0 -0.5089079738)
(-0.876157999 0 -0.4820249975)
(-0.8906549811 0 -0.4546799958)
(-0.8099259734 0 -0.58653301)
(-0.827688992 0 -0.5611870289)
(-0.8446589708 0 -0.5353040099)
(-0.7520520091 0 -0.6591029763)
(-0.7720890045 0 -0.6355140209)
(-0.7913860083 0 -0.6113160253)
(-0.6876990199 0 -0.7259950042)
(-0.7098370194 0 -0.7043660283)
(-0.7312949896 0 -0.6820610166)
(-0.6174209714 0 -0.7866330147)
(-0.6414690018 0 -0.7671489716)
(-0.6649029851 0 -0.7469300032)
(-0.5418239832 0 -0.8404920101)
(-0.5675749779 0 -0.8233219981)
(-0.5927820206 0 -0.8053629994)
(-0.4615580142 0 -0.8871099949)
(-0.4887900054 0 -0.8724009991)
(-0.5155540109 0 -0.8568570018)
(-0.3773150146 0 -0.9260849953)
(-0.4057939947 0 -0.9139649868)
(-0.4338839948 0 -0.9009690285)
(-0.2898220122 0 -0.9570810199)
(-0.3193019927 0 -0.9476529956)
(-0.3484750092 0 -0.937318027)
(-0.199830994 0 -0.9798300266)
(-0.2300579995 0 -0.9731770158)
(-0.2600649893 0 -0.9655910134)
(-0.1081190035 0 -0.9941380024)
(-0.1388330013 0 -0.9903159738)
(-0.1694130003 0 -0.9855449796)
(-0.04641079903 0 -0.9989219904)
(-0.07730189711 0 -0.9970080256)
(0.01547519956 -0.05000000075 -0.9998800159)
(3.673940028e-16 -0.05000000075 -1)
(-0.01547519956 -0.05000000075 -0.9998800159)
(-0.04641079903 -0.05000000075 -0.9989219904)
(-0.07730189711 -0.05000000075 -0.9970080256)
(-0.1081190035 -0.05000000075 -0.9941380024)
(-0.1388330013 -0.05000000075 -0.9903159738)
(-0.1694130003 -0.05000000075 -0.9855449796)
(-0.199830994 -0.05000000075 -0.9798300266)
(-0.2300579995 -0.05000000075 -0.9731770158)
(-0.2600649893 -0.05000000075 -0.9655910134)
(-0.2898220122 -0.05000000075 -0.9570810199)
(-0.3193019927 -0.05000000075 -0.9476529956)
(-0.3484750092 -0.05000000075 -0.937318027)
(-0.3773150146 -0.05000000075 -0.9260849953)
(-0.4057939947 -0.05000000075 -0.9139649868)
(-0.4338839948 -0.05000000075 -0.9009690285)
(-0.4615580142 -0.05000000075 -0.8871099949)
(-0.4887900054 -0.05000000075 -0.8724009991)
(-0.5155540109 -0.05000000075 -0.8568570018)
(-0.5418239832 -0.05000000075 -0.8404920101)
(-0.5675749779 -0.05000000075 -0.8233219981)
(-0.5927820206 -0.05000000075 -0.8053629994)
(-0.6174209714 -0.05000000075 -0.7866330147)
(-0.6414690018 -0.05000000075 -0.7671489716)
(-0.6649029851 -0.05000000075 -0.7469300032)
(-0.6876990199 -0.05000000075 -0.7259950042)
(-0.7098370194 -0.05000000075 -0.7043660283)
(-0.7312949896 -0.05000000075 -0.6820610166)
(-0.7520520091 -0.05000000075 -0.6591029763)
(-0.7720890045 -0.05000000075 -0.6355140209)
(-0.7913860083 -0.05000000075 -0.6113160253)
(-0.8099259734 -0.05000000075 -0.58653301)
(-0.827688992 -0.05000000075 -0.5611870289)
(-0.8446589708 -0.05000000075 -0.5353040099)
(-0.8608210087 -0.05000000075 -0.5089079738)
(-0.876157999 -0.05000000075 -0.4820249975)
(-0.8906549811 -0.05000000075 -0.4546799958)
(-0.9042990208 -0.05000000075 -0.4268989861)
(-0.9170770049 -0.05000000075 -0.3987100124)
(-0.9289770126 -0.05000000075 -0.3701379895)
(-0.9399859905 -0.05000000075 -0.3412120044)
(-0.9500949979 -0.05000000075 -0.3119589984)
(-0.9592949748 -0.05000000075 -0.2824069858)
(-0.9675750136 -0.05000000075 -0.2525849938)
(-0.9749280214 -0.05000000075 -0.2225210071)
(-0.9813470244 -0.05000000075 -0.1922439933)
(-0.9868270159 -0.05000000075 -0.1617819965)
(-0.9913600087 -0.05000000075 -0.1311649978)
(-0.9949449897 -0.05000000075 -0.1004230008)
(-0.9975759983 -0.05000000075 -0.06958489865)
(-0.9992520213 -0.05000000075 -0.03867990151)
(-0.9999700189 -0.05000000075 -0.00773784006)
(-0.9997310042 -0.05000000075 0.02321170084)
(-0.9985330105 -0.05000000075 0.05413889885)
(-0.9963799715 -0.05000000075 0.08501429856)
(-0.9932720065 -0.05000000075 0.1158080027)
(-0.9892119765 -0.05000000075 0.146491006)
(-0.9842050076 -0.05000000075 0.1770340055)
(-0.9782549739 -0.05000000075 0.2074069977)
(-0.9713680148 -0.05000000075 0.2375819981)
(-0.9635499716 -0.05000000075 0.2675279975)
(-0.95480901 -0.05000000075 0.2972190082)
(-0.9451540112 -0.05000000075 0.3266249895)
(-0.9345930219 -0.05000000075 0.3557179868)
(-0.9231370091 -0.05000000075 0.384469986)
(-0.9107969999 -0.05000000075 0.412853986)
(-0.8975849748 -0.05000000075 0.4408420026)
(-0.8835120201 -0.05000000075 0.4684079885)
(-0.8685929775 -0.05000000075 0.495525986)
(-0.8528419733 -0.05000000075 0.5221689939)
(-0.8362740278 -0.05000000075 0.5483109951)
(-0.8189049959 -0.05000000075 0.5739290118)
(-0.8007519841 -0.05000000075 0.5989959836)
(-0.7818319798 -0.05000000075 0.6234899759)
(-0.7621620297 -0.05000000075 0.6473860145)
(-0.7417629957 -0.05000000075 0.6706629992)
(-0.7206519842 -0.05000000075 0.6932960153)
(-0.6988520026 -0.05000000075 0.7152659893)
(-0.6763820052 -0.05000000075 0.7365509868)
(-0.6532639861 -0.05000000075 0.7571300268)
(-0.6295210123 -0.05000000075 0.7769839764)
(-0.605174005 -0.05000000075 0.7960929871)
(-0.5802479982 -0.05000000075 0.814440012)
(-0.5547659993 -0.05000000075 0.8320069909)
(-0.5287520289 -0.05000000075 0.8487759829)
(-0.5022320151 -0.05000000075 0.8647329807)
(-0.4752309918 -0.05000000075 0.8798609972)
(-0.447773993 -0.05000000075 0.8941469789)
(-0.419889003 -0.05000000075 0.9075750113)
(-0.3916020095 -0.05000000075 0.9201350212)
(-0.3629390001 -0.05000000075 0.9318130016)
(-0.333927989 -0.05000000075 0.9425979853)
(-0.3045980036 -0.05000000075 0.9524809718)
(-0.2749759853 -0.05000000075 0.961450994)
(-0.2450910062 -0.05000000075 0.9695000052)
(-0.2149699926 -0.05000000075 0.9766209722)
(-0.1846439987 -0.05000000075 0.9828050137)
(-0.154140994 -0.05000000075 0.9880489707)
(-0.1234909967 -0.05000000075 0.9923459888)
(-0.09272159636 -0.05000000075 0.9956920147)
(-0.06186379865 -0.05000000075 0.998085022)
(-0.0309466999 -0.05000000075 0.9995210171)
(0 -0.05000000075 1)
(0.0309466999 -0.05000000075 0.9995210171)
(0.06186379865 -0.05000000075 0.998085022)
(0.09272159636 -0.05000000075 0.9956920147)
(0.1234909967 -0.05000000075 0.9923459888)
(0.154140994 -0.05000000075 0.9880489707)
(0.1846439987 -0.05000000075 0.9828050137)
(0.2149699926 -0.05000000075 0.9766209722)
(0.2450910062 -0.05000000075 0.9695000052)
(0.2749759853 -0.05000000075 0.961450994)
(0.3045980036 -0.05000000075 0.9524809718)
(0.333927989 -0.05000000075 0.9425979853)
(0.3629390001 -0.05000000075 0.9318130016)
(0.3916020095 -0.05000000075 0.9201350212)
(0.419889003 -0.05000000075 0.9075750113)
(0.447773993 -0.05000000075 0.8941469789)
(0.4752309918 -0.05000000075 0.8798609972)
(0.5022320151 -0.05000000075 0.8647329807)
(0.5287520289 -0.05000000075 0.8487759829)
(0.5547659993 -0.05000000075 0.8320069909)
(0.5802479982 -0.05000000075 0.814440012)
(0.605174005 -0.05000000075 0.7960929871)
(0.6295210123 -0.05000000075 0.7769839764)
(0.6532639861 -0.05000000075 0.7571300268)
(0.6763820052 -0.05000000075 0.7365509868)
(0.6988520026 -0.05000000075 0.7152659893)
(0.7206519842 -0.05000000075 0.6932960153)
(0.7417629957 -0.05000000075 0.6706629992)
(0.7621620297 -0.05000000075 0.6473860145)
(0.7818319798 -0.05000000075 0.6234899759)
(0.8007519841 -0.05000000075 0.5989959836)
(0.8189049959 -0.05000000075 0.5739290118)
(0.8362740278 -0.05000000075 0.5483109951)
(0.8528419733 -0.05000000075 0.5221689939)
(0.8685929775 -0.05000000075 0.495525986)
(0.8835120201 -0.05000000075 0.4684079885)
(0.8975849748 -0.05000000075 0.4408420026)
(0.9107969999 -0.05000000075 0.412853986)
(0.9231370091 -0.05000000075 0.384469986)
(0.9345930219 -0.05000000075 0.3557179868)
(0.9451540112 -0.05000000075 0.3266249895)
(0.95480901 -0.05000000075 0.2972190082)
(0.9635499716 -0.05000000075 0.2675279975)
(0.9713680148 -0.05000000075 0.2375819981)
(0.9782549739 -0.05000000075 0.2074069977)
(0.9842050076 -0.05000000075 0.1770340055)
(0.9892119765 -0.05000000075 0.146491006)
(0.9932720065 -0.05000000075 0.1158080027)
(0.9963799715 -0.05000000075 0.08501429856)
(0.9985330105 -0.05000000075 0.05413889885)
(0.9997310042 -0.05000000075 0.02321170084)
(0.9999700189 -0.05000000075 -0.00773784006)
(0.9992520213 -0.05000000075 -0.03867990151)
(0.9975759983 -0.05000000075 -0.06958489865)
(0.9949449897 -0.05000000075 -0.1004230008)
(0.9913600087 -0.05000000075 -0.1311649978)
(0.9868270159 -0.05000000075 -0.1617819965)
(0.9813470244 -0.05000000075 -0.1922439933)
(0.9749280214 -0.05000000075 -0.2225210071)
(0.9675750136 -0.05000000075 -0.2525849938)
(0.9592949748 -0.05000000075 -0.2824069858)
(0.9500949979 -0.05000000075 -0.3119589984)
(0.9399859905 -0.05000000075 -0.3412120044)
(0.9289770126 -0.05000000075 -0.3701379895)
(0.9170770049 -0.05000000075 -0.3987100124)
(0.9042990208 -0.05000000075 -0.4268989861)
(0.8906549811 -0.05000000075 -0.4546799958)
(0.876157999 -0.05000000075 -0.4820249975)
(0.8608210087 -0.05000000075 -0.5089079738)
(0.8446589708 -0.05000000075 -0.5353040099)
(0.827688992 -0.05000000075 -0.5611870289)
(0.8099259734 -0.05000000075 -0.58653301)
(0.7913860083 -0.05000000075 -0.6113160253)
(0.7720890045 -0.05000000075 -0.6355140209)
(0.7520520091 -0.05000000075 -0.6591029763)
(0.7312949896 -0.05000000075 -0.6820610166)
(0.7098370194 -0.05000000075 -0.7043660283)
(0.6876990199 -0.05000000075 -0.7259950042)
(0.6649029851 -0.05000000075 -0.7469300032)
(0.6414690018 -0.05000000075 -0.7671489716)
(0.6174209714 -0.05000000075 -0.7866330147)
(0.5927820206 -0.05000000075 -0.8053629994)
(0.5675749779 -0.05000000075 -0.8233219981)
(0.5418239832 -0.05000000075 -0.8404920101)
(0.5155540109 -0.05000000075 -0.8568570018)
(0.4887900054 -0.05000000075 -0.8724009991)
(0.4615580142 -0.05000000075 -0.8871099949)
(0.4338839948 -0.05000000075 -0.9009690285)
(0.4057939947 -0.05000000075 -0.9139649868)
(0.3773150146 -0.05000000075 -0.9260849953)
(0.3484750092 -0.05000000075 -0.937318027)
(0.3193019927 -0.05000000075 -0.9476529956)
(0.2898220122 -0.05000000075 -0.9570810199)
(0.2600649893 -0.05000000075 -0.9655910134)
(0.2300579995 -0.05000000075 -0.9731770158)
(0.199830994 -0.05000000075 -0.9798300266)
(0.1694130003 -0.05000000075 -0.9855449796)
(0.1388330013 -0.05000000075 -0.9903159738)
(0.1081190035 -0.05000000075 -0.9941380024)
(0.07730189711 -0.05000000075 -0.9970080256)
(0.04641079903 -0.05000000075 -0.9989219904)
)

// edges

408
(
(0 1)
(1 2)
(2 3)
(4 5)
(5 6)
(6 0)
(7 8)
(8 9)
(9 4)
(10 11)
(11 12)
(12 7)
(13 14)
(14 15)
(15 10)
(16 17)
(17 18)
(18 13)
(19 20)
(20 21)
(21 16)
(22 23)
(23 24)
(24 19)
(25 26)
(26 27)
(27 22)
(28 29)
(29 30)
(30 25)
(31 32)
(32 33)
(33 28)
(34 35)
(35 36)
(36 31)
(37 38)
(38 39)
(39 34)
(40 41)
(41 42)
(42 37)
(43 44)
(44 45)
(45 40)
(46 47)
(47 48)
(48 43)
(49 50)
(50 51)
(51 46)
(52 53)
(53 54)
(54 49)
(55 56)
(56 57)
(57 52)
(58 59)
(59 60)
(60 55)
(61 62)
(62 63)
(63 58)
(64 65)
(65 66)
(66 61)
(67 68)
(68 69)
(69 64)
(70 71)
(71 72)
(72 67)
(73 74)
(74 75)
(75 70)
(76 77)
(77 78)
(78 73)
(79 80)
(80 81)
(81 76)
(82 83)
(83 84)
(84 79)
(85 86)
(86 87)
(87 82)
(88 89)
(89 90)
(90 85)
(91 92)
(92 93)
(93 88)
(94 95)
(95 96)
(96 91)
(97 98)
(98 99)
(99 94)
(100 101)
(101 102)
(102 97)
(103 104)
(104 105)
(105 100)
(106 107)
(107 108)
(108 103)
(109 110)
(110 111)
(111 106)
(112 113)
(113 114)
(114 109)
(115 116)
(116 117)
(117 112)
(118 119)
(119 120)
(120 115)
(121 122)
(122 123)
(123 118)
(124 125)
(125 126)
(126 121)
(127 128)
(128 129)
(129 124)
(130 131)
(131 132)
(132 127)
(133 134)
(134 135)
(135 130)
(136 137)
(137 138)
(138 133)
(139 140)
(140 141)
(141 136)
(142 143)
(143 144)
(144 139)
(145 146)
(146 147)
(147 142)
(148 149)
(149 150)
(150 145)
(151 152)
(152 153)
(153 148)
(154 155)
(155 156)
(156 151)
(157 158)
(158 159)
(159 154)
(160 161)
(161 162)
(162 157)
(163 164)
(164 165)
(165 160)
(166 167)
(167 168)
(168 163)
(169 170)
(170 171)
(171 166)
(172 173)
(173 174)
(174 169)
(175 176)
(176 177)
(177 172)
(178 179)
(179 180)
(180 175)
(181 182)
(182 183)
(183 178)
(184 185)
(185 186)
(186 181)
(187 188)
(188 189)
(189 184)
(190 191)
(191 192)
(192 187)
(193 194)
(194 195)
(195 190)
(196 197)
(197 198)
(198 193)
(199 200)
(200 201)
(201 196)
(3 202)
(202 203)
(203 199)
(204 205)
(205 206)
(206 207)
(207 208)
(208 209)
(209 210)
(210 211)
(211 212)
(212 213)
(213 214)
(214 215)
(215 216)
(216 217)
(217 218)
(218 219)
(219 220)
(220 221)
(221 222)
(222 223)
(223 224)
(224 225)
(225 226)
(226 227)
(227 228)
(228 229)
(229 230)
(230 231)
(231 232)
(232 233)
(233 234)
(234 235)
(235 236)
(236 237)
(237 238)
(238 239)
(239 240)
(240 241)
(241 242)
(242 243)
(243 244)
(244 245)
(245 246)
(246 247)
(247 248)
(248 249)
(249 250)
(250 251)
(251 252)
(252 253)
(253 254)
(254 255)
(255 256)
(256 257)
(257 258)
(258 259)
(259 260)
(260 261)
(261 262)
(262 263)
(263 264)
(264 265)
(265 266)
(266 267)
(267 268)
(268 269)
(269 270)
(270 271)
(271 272)
(272 273)
(273 274)
(274 275)
(275 276)
(276 277)
(277 278)
(278 279)
(279 280)
(280 281)
(281 282)
(282 283)
(283 284)
(284 285)
(285 286)
(286 287)
(287 288)
(288 289)
(289 290)
(290 291)
(291 292)
(292 293)
(293 294)
(294 295)
(295 296)
(296 297)
(297 298)
(298 299)
(299 300)
(300 301)
(301 302)
(302 303)
(303 304)
(304 305)
(305 306)
(306 307)
(307 308)
(308 309)
(309 310)
(310 311)
(311 312)
(312 313)
(313 314)
(314 315)
(315 316)
(316 317)
(317 318)
(318 319)
(319 320)
(320 321)
(321 322)
(322 323)
(323 324)
(324 325)
(325 326)
(326 327)
(327 328)
(328 329)
(329 330)
(330 331)
(331 332)
(332 333)
(333 334)
(334 335)
(335 336)
(336 337)
(337 338)
(338 339)
(339 340)
(340 341)
(341 342)
(342 343)
(343 344)
(344 345)
(345 346)
(346 347)
(347 348)
(348 349)
(349 350)
(350 351)
(351 352)
(352 353)
(353 354)
(354 355)
(355 356)
(356 357)
(357 358)
(358 359)
(359 360)
(360 361)
(361 362)
(362 363)
(363 364)
(364 365)
(365 366)
(366 367)
(367 368)
(368 369)
(369 370)
(370 371)
(371 372)
(372 373)
(373 374)
(374 375)
(375 376)
(376 377)
(377 378)
(378 379)
(379 380)
(380 381)
(381 382)
(382 383)
(383 384)
(384 385)
(385 386)
(386 387)
(387 388)
(388 389)
(389 390)
(390 391)
(391 392)
(392 393)
(393 394)
(394 395)
(395 396)
(396 397)
(397 398)
(398 399)
(399 400)
(400 401)
(401 402)
(402 403)
(403 404)
(404 405)
(405 406)
(406 407)
(407 204)
)

// concaveStart mixedStart nonFeatureStart
0 0 0
// internalStart flatStart openStart multipleStart
408 408 408 408
// normals

816
(
(0 1 0)
(0.0309535425 0 -0.9995208243)
(0 1 0)
(0.007753085399 0 -0.9999699444)
(0 1 0)
(-0.007753085399 -3.79791085e-17 -0.9999699444)
(0 1 0)
(0.1234868753 0 -0.9923462055)
(0 1 0)
(0.092729578 0 -0.9956913304)
(0 1 0)
(0.06183987292 0 -0.9980860835)
(0 1 0)
(0.2149563819 0 -0.9766236501)
(0 1 0)
(0.184649938 0 -0.9828043551)
(0 1 0)
(0.1541519734 0 -0.9880471492)
(0 1 0)
(0.3046124923 0 -0.9524763669)
(0 1 0)
(0.2749597054 0 -0.9614557506)
(0 1 0)
(0.2450968489 0 -0.9694985996)
(0 1 0)
(0.39159055 0 -0.920139577)
(0 1 0)
(0.362936627 0 -0.9318138252)
(0 1 0)
(0.3339292081 0 -0.9425981561)
(0 1 0)
(0.4752419816 0 -0.8798551352)
(0 1 0)
(0.4477827758 0 -0.8941423744)
(0 1 0)
(0.4198928375 0 -0.9075736912)
(0 1 0)
(0.5547601914 0 -0.8320102945)
(0 1 0)
(0.5287497451 0 -0.8487777725)
(0 1 0)
(0.5022226724 0 -0.8647383346)
(0 1 0)
(0.629521986 0 -0.7769826698)
(0 1 0)
(0.6051730129 0 -0.7960939796)
(0 1 0)
(0.5802529461 0 -0.8144363195)
(0 1 0)
(0.6988356452 0 -0.7152822807)
(0 1 0)
(0.676402633 0 -0.7365320618)
(0 1 0)
(0.6532594497 0 -0.7571341304)
(0 1 0)
(0.7621563782 0 -0.6473929681)
(0 1 0)
(0.7417694659 0 -0.6706549481)
(0 1 0)
(0.7206580046 0 -0.693290733)
(0 1 0)
(0.8189155907 0 -0.573913979)
(0 1 0)
(0.800732905 0 -0.5990215478)
(0 1 0)
(0.7818354807 0 -0.6234847882)
(0 1 0)
(0.8685868556 0 -0.4955369555)
(0 1 0)
(0.8528340469 0 -0.5221820453)
(0 1 0)
(0.8362812968 0 -0.5483006407)
(0 1 0)
(0.9107942594 0 -0.4128605298)
(0 1 0)
(0.8975897681 0 -0.4408317232)
(0 1 0)
(0.883517664 0 -0.468397841)
(0 1 0)
(0.945156063 0 -0.3266190696)
(0 1 0)
(0.9345999586 0 -0.3557006009)
(0 1 0)
(0.923134287 0 -0.3844776822)
(0 1 0)
(0.9713689402 0 -0.2375760554)
(0 1 0)
(0.9635499631 0 -0.2675284446)
(0 1 0)
(0.9548016121 0 -0.2972438084)
(0 1 0)
(0.9892168483 0 -0.1464582776)
(0 1 0)
(0.9842011647 0 -0.1770538547)
(0 1 0)
(0.9782563783 0 -0.2073992727)
(0 1 0)
(0.9985327103 0 -0.05415188319)
(0 1 0)
(0.9963802696 0 -0.08500799026)
(0 1 0)
(0.9932690335 0 -0.1158301645)
(0 1 0)
(0.9992506071 0 0.03870690087)
(0 1 0)
(0.9999701811 0 0.007722489298)
(0 1 0)
(0.9997308824 0 -0.02319833558)
(0 1 0)
(0.9913587822 0 0.1311783704)
(0 1 0)
(0.9949452953 0 0.1004184212)
(0 1 0)
(0.9975774751 0 0.06956422292)
(0 1 0)
(0.9749299298 0 0.2225120939)
(0 1 0)
(0.9813470144 0 0.1922447331)
(0 1 0)
(0.9868280784 0 0.161772506)
(0 1 0)
(0.9500984777 0 0.3119501284)
(0 1 0)
(0.9592927777 0 0.2824134674)
(0 1 0)
(0.9675695621 0 0.2526047159)
(0 1 0)
(0.9170802208 0 0.3987027321)
(0 1 0)
(0.9289748398 0 0.3701428737)
(0 1 0)
(0.9399829913 0 0.3412213008)
(0 1 0)
(0.8761593658 0 0.4820215407)
(0 1 0)
(0.8906483603 0 0.4546927516)
(0 1 0)
(0.9043052564 0 0.4268864055)
(0 1 0)
(0.8276952173 0 0.5611778927)
(0 1 0)
(0.8446533458 0 0.5353136702)
(0 1 0)
(0.8608216721 0 0.5089067192)
(0 1 0)
(0.7720751398 0 0.6355312569)
(0 1 0)
(0.7913970965 0 0.6113024093)
(0 1 0)
(0.8099257485 0 0.5865324219)
(0 1 0)
(0.7098476679 0 0.7043552289)
(0 1 0)
(0.7312669533 0 0.6820913744)
(0 1 0)
(0.7520693384 0 0.6590839933)
(0 1 0)
(0.641482757 0 0.7671374534)
(0 1 0)
(0.6648995317 0 0.7469328034)
(0 1 0)
(0.6877043178 0 0.7259908893)
(0 1 0)
(0.5675837623 0 0.823315658)
(0 1 0)
(0.5927904873 0 0.8053567148)
(0 1 0)
(0.6174063297 0 0.7866444076)
(0 1 0)
(0.4887864408 0 0.8724034705)
(0 1 0)
(0.5155641759 0 0.8568509675)
(0 1 0)
(0.5418025358 0 0.8405058074)
(0 1 0)
(0.4058150201 0 0.9139552338)
(0 1 0)
(0.4338661396 0 0.9009773432)
(0 1 0)
(0.4615648848 0 0.887106452)
(0 1 0)
(0.3193178905 0 0.9476476586)
(0 1 0)
(0.3484552548 0 0.937325416)
(0 1 0)
(0.3773095805 0 0.9260871884)
(0 1 0)
(0.2300699642 0 0.9731740911)
(0 1 0)
(0.2600655182 0 0.9655909725)
(0 1 0)
(0.289819567 0 0.957081302)
(0 1 0)
(0.138838562 0 0.9903150275)
(0 1 0)
(0.1694305408 0 0.9855421309)
(0 1 0)
(0.1998068775 0 0.9798352983)
(0 1 0)
(0.0463966133 0 0.9989230973)
(0 1 0)
(0.07731737399 0 0.9970065314)
(0 1 0)
(0.1081079062 0 0.9941391656)
(-0 1 0)
(-0.0463966133 0 0.9989230973)
(-0 1 0)
(-0.0154758202 0 0.9998802423)
(0 1 0)
(0.0154758202 0 0.9998802423)
(-0 1 0)
(-0.138838562 0 0.9903150275)
(-0 1 0)
(-0.1081079062 0 0.9941391656)
(0 1 0)
(-0.07731737399 0 0.9970065314)
(-0 1 0)
(-0.2300699642 0 0.9731740911)
(-0 1 0)
(-0.1998068775 0 0.9798352983)
(0 1 0)
(-0.1694305408 0 0.9855421309)
(-0 1 0)
(-0.3193178905 0 0.9476476586)
(-0 1 0)
(-0.289819567 0 0.957081302)
(0 1 0)
(-0.2600655182 0 0.9655909725)
(-0 1 0)
(-0.4058150201 0 0.9139552338)
(-0 1 0)
(-0.3773095805 0 0.9260871884)
(0 1 0)
(-0.3484552548 0 0.937325416)
(-0 1 0)
(-0.4887864408 0 0.8724034705)
(-0 1 0)
(-0.4615648848 0 0.887106452)
(0 1 0)
(-0.4338661396 0 0.9009773432)
(-0 1 0)
(-0.5675837623 0 0.823315658)
(-0 1 0)
(-0.5418025358 0 0.8405058074)
(0 1 0)
(-0.5155641759 0 0.8568509675)
(-0 1 0)
(-0.641482757 0 0.7671374534)
(-0 1 0)
(-0.6174063297 0 0.7866444076)
(0 1 0)
(-0.5927904873 0 0.8053567148)
(-0 1 0)
(-0.7098476679 0 0.7043552289)
(-0 1 0)
(-0.6877043178 0 0.7259908893)
(0 1 0)
(-0.6648995317 0 0.7469328034)
(-0 1 0)
(-0.7720751398 0 0.6355312569)
(-0 1 0)
(-0.7520693384 0 0.6590839933)
(0 1 0)
(-0.7312669533 0 0.6820913744)
(-0 1 0)
(-0.8276952173 0 0.5611778927)
(-0 1 0)
(-0.8099257485 0 0.5865324219)
(0 1 0)
(-0.7913970965 0 0.6113024093)
(-0 1 0)
(-0.8761593658 0 0.4820215407)
(-0 1 0)
(-0.8608216721 0 0.5089067192)
(0 1 0)
(-0.8446533458 0 0.5353136702)
(-0 1 0)
(-0.9170802208 0 0.3987027321)
(-0 1 0)
(-0.9043052564 0 0.4268864055)
(0 1 0)
(-0.8906483603 0 0.4546927516)
(-0 1 0)
(-0.9500984777 0 0.3119501284)
(-0 1 0)
(-0.9399829913 0 0.3412213008)
(0 1 0)
(-0.9289748398 0 0.3701428737)
(-0 1 0)
(-0.9749299298 0 0.2225120939)
(-0 1 0)
(-0.9675695621 0 0.2526047159)
(0 1 0)
(-0.9592927777 0 0.2824134674)
(-0 1 0)
(-0.9913587822 0 0.1311783704)
(-0 1 0)
(-0.9868280784 0 0.161772506)
(0 1 0)
(-0.9813470144 0 0.1922447331)
(-0 1 0)
(-0.9992506071 0 0.03870690087)
(-0 1 0)
(-0.9975774751 0 0.06956422292)
(0 1 0)
(-0.9949452953 0 0.1004184212)
(0 1 -0)
(-0.9985327103 0 -0.05415188319)
(0 1 -0)
(-0.9997308824 0 -0.02319833558)
(0 1 0)
(-0.9999701811 0 0.007722489298)
(0 1 -0)
(-0.9892168483 0 -0.1464582776)
(0 1 -0)
(-0.9932690335 0 -0.1158301645)
(0 1 0)
(-0.9963802696 0 -0.08500799026)
(0 1 -0)
(-0.9713689402 0 -0.2375760554)
(0 1 -0)
(-0.9782563783 0 -0.2073992727)
(0 1 0)
(-0.9842011647 0 -0.1770538547)
(0 1 -0)
(-0.945156063 0 -0.3266190696)
(0 1 -0)
(-0.9548016121 0 -0.2972438084)
(0 1 0)
(-0.9635499631 0 -0.2675284446)
(0 1 -0)
(-0.9107942594 0 -0.4128605298)
(0 1 -0)
(-0.923134287 0 -0.3844776822)
(0 1 0)
(-0.9345999586 0 -0.3557006009)
(0 1 -0)
(-0.8685868556 0 -0.4955369555)
(0 1 -0)
(-0.883517664 0 -0.468397841)
(0 1 0)
(-0.8975897681 0 -0.4408317232)
(0 1 -0)
(-0.8189155907 0 -0.573913979)
(0 1 -0)
(-0.8362812968 0 -0.5483006407)
(0 1 0)
(-0.8528340469 0 -0.5221820453)
(0 1 -0)
(-0.7621563782 0 -0.6473929681)
(0 1 -0)
(-0.7818354807 0 -0.6234847882)
(0 1 0)
(-0.800732905 0 -0.5990215478)
(0 1 -0)
(-0.6988356452 0 -0.7152822807)
(0 1 -0)
(-0.7206580046 0 -0.693290733)
(0 1 0)
(-0.7417694659 0 -0.6706549481)
(0 1 -0)
(-0.629521986 0 -0.7769826698)
(0 1 -0)
(-0.6532594497 0 -0.7571341304)
(0 1 0)
(-0.676402633 0 -0.7365320618)
(0 1 -0)
(-0.5547601914 0 -0.8320102945)
(0 1 -0)
(-0.5802529461 0 -0.8144363195)
(0 1 0)
(-0.6051730129 0 -0.7960939796)
(0 1 -0)
(-0.4752419816 0 -0.8798551352)
(0 1 -0)
(-0.5022226724 0 -0.8647383346)
(0 1 0)
(-0.5287497451 0 -0.8487777725)
(0 1 -0)
(-0.39159055 0 -0.920139577)
(0 1 -0)
(-0.4198928375 0 -0.9075736912)
(0 1 0)
(-0.4477827758 0 -0.8941423744)
(0 1 -0)
(-0.3046124923 0 -0.9524763669)
(0 1 -0)
(-0.3339292081 0 -0.9425981561)
(0 1 0)
(-0.362936627 0 -0.9318138252)
(0 1 -0)
(-0.2149563819 0 -0.9766236501)
(0 1 -0)
(-0.2450968489 0 -0.9694985996)
(0 1 0)
(-0.2749597054 0 -0.9614557506)
(0 1 -0)
(-0.1234868753 0 -0.9923462055)
(0 1 -0)
(-0.1541519734 0 -0.9880471492)
(0 1 0)
(-0.184649938 0 -0.9828043551)
(0 1 -0)
(-0.0309535425 0 -0.9995208243)
(0 1 -0)
(-0.06183987292 0 -0.9980860835)
(0 1 0)
(-0.092729578 0 -0.9956913304)
(0.007753085399 3.776592067e-17 -0.9999699444)
(0 -1 0)
(-0.007753085399 0 -0.9999699444)
(0 -1 0)
(-0.0309535425 0 -0.9995208243)
(0 -1 0)
(-0.06183987292 0 -0.9980860835)
(0 -1 0)
(-0.092729578 0 -0.9956913304)
(0 -1 0)
(-0.1234868753 0 -0.9923462055)
(0 -1 0)
(-0.1541519734 0 -0.9880471492)
(0 -1 0)
(-0.184649938 0 -0.9828043551)
(0 -1 0)
(-0.2149563819 0 -0.9766236501)
(0 -1 0)
(-0.2450968489 0 -0.9694985996)
(0 -1 0)
(-0.2749597054 0 -0.9614557506)
(0 -1 0)
(-0.3046124923 0 -0.9524763669)
(0 -1 0)
(-0.3339292081 0 -0.9425981561)
(0 -1 0)
(-0.362936627 0 -0.9318138252)
(0 -1 0)
(-0.39159055 0 -0.920139577)
(0 -1 0)
(-0.4198928375 0 -0.9075736912)
(0 -1 0)
(-0.4477827758 0 -0.8941423744)
(0 -1 0)
(-0.4752419816 0 -0.8798551352)
(0 -1 0)
(-0.5022226724 0 -0.8647383346)
(0 -1 0)
(-0.5287497451 0 -0.8487777725)
(0 -1 0)
(-0.5547601914 0 -0.8320102945)
(0 -1 0)
(-0.5802529461 0 -0.8144363195)
(0 -1 0)
(-0.6051730129 0 -0.7960939796)
(0 -1 0)
(-0.629521986 0 -0.7769826698)
(0 -1 0)
(-0.6532594497 0 -0.7571341304)
(0 -1 0)
(-0.676402633 0 -0.7365320618)
(0 -1 0)
(-0.6988356452 0 -0.7152822807)
(0 -1 0)
(-0.7206580046 0 -0.693290733)
(0 -1 0)
(-0.7417694659 0 -0.6706549481)
(0 -1 0)
(-0.7621563782 0 -0.6473929681)
(0 -1 0)
(-0.7818354807 0 -0.6234847882)
(0 -1 0)
(-0.800732905 0 -0.5990215478)
(0 -1 0)
(-0.8189155907 0 -0.573913979)
(0 -1 0)
(-0.8362812968 0 -0.5483006407)
(0 -1 0)
(-0.8528340469 0 -0.5221820453)
(0 -1 0)
(-0.8685868556 0 -0.4955369555)
(0 -1 0)
(-0.883517664 0 -0.468397841)
(0 -1 0)
(-0.8975897681 0 -0.4408317232)
(0 -1 0)
(-0.9107942594 0 -0.4128605298)
(0 -1 0)
(-0.923134287 0 -0.3844776822)
(0 -1 0)
(-0.9345999586 0 -0.3557006009)
(0 -1 0)
(-0.945156063 0 -0.3266190696)
(0 -1 0)
(-0.9548016121 0 -0.2972438084)
(0 -1 0)
(-0.9635499631 0 -0.2675284446)
(0 -1 0)
(-0.9713689402 0 -0.2375760554)
(0 -1 0)