/*--------------------------------*- C++ -*----------------------------------*\
| =========                 |                                                 |
| \\      /  F ield         | OpenFOAM: The Open Source CFD Toolbox           |
|  \\    /   O peration     | Version:  2112                                  |
|   \\  /    A nd           | Website:  www.openfoam.com                      |
|    \\/     M anipulation  |                                                 |
\*---------------------------------------------------------------------------*/
FoamFile
{
    version     2.0;
    format      ascii;
    arch        "LSB;label=32;scalar=64";
    class       dictionary;
    location    "constant";
    object      transportProperties;
}
// * * * * * * * * * * * * * * * * * * * * * * * * * * * * * * * * * * * * * //
interfaceModel		BoussinesqScriven;
interfacePatch		top;

// Dimensionless numbers
Ma		1e2;
Pes		1e6;
Bq		5000;
Bqk		1e4;

// Isotherm model for the calculation of the Marangoni modulus
isothermModel       idealGas;


// ************************************************************************* //
